# Generated by REPEAT Assigner based on pymatgen
data_DB0-m2_o23_o28_f0_nbo
_audit_creation_date              2022-05-24
_audit_creation_method            REPEAT_Assigner
_cell_length_a                    45.372169
_cell_length_b                    45.377096
_cell_length_c                    32.673701
_cell_angle_alpha                 90.000000
_cell_angle_beta                  133.952648
_cell_angle_gamma                 90.000000
_cell_volume                      48428.941918
_symmetry_space_group_name_H-M    P1
_symmetry_Int_Tables_number       1
loop_
    _symmetry_equiv_pos_site_id
    _symmetry_equiv_pos_as_xyz
    1  x,y,z
loop_
    _atom_site_type_symbol
    _atom_site_label
    _atom_site_fract_x
    _atom_site_fract_y
    _atom_site_fract_z
    _atom_type_partial_charge
    O   O1    0.702085  0.237210  0.500871  -0.665756
    O   O2    0.297915  0.237210  0.499129  -0.665807
    O   O3    0.202085  0.737210  0.500871  -0.665763
    O   O4    0.797915  0.737210  0.499129  -0.665810
    O   O5    0.736773  0.201672  0.499153  -0.644315
    O   O6    0.263227  0.201672  0.500847  -0.644256
    O   O7    0.236773  0.701672  0.499153  -0.644308
    O   O8    0.763227  0.701672  0.500847  -0.644249
    C   C1    0.709244  0.209254  0.500016  0.902716
    C   C2    0.290756  0.209254  0.499985  0.902628
    C   C3    0.209244  0.709254  0.500016  0.902727
    C   C4    0.790756  0.709254  0.499985  0.902625
    O   O9    0.690233  0.267326  0.416869  -0.600318
    O   O10   0.309767  0.267326  0.583131  -0.600384
    O   O11   0.190233  0.767326  0.416869  -0.600345
    O   O12   0.809767  0.767326  0.583131  -0.600383
    O   O13   0.726524  0.232630  0.416850  -0.584670
    O   O14   0.273476  0.232630  0.583150  -0.584663
    O   O15   0.226524  0.732630  0.416850  -0.584672
    O   O16   0.773476  0.732630  0.583150  -0.584660
    C   C5    0.694439  0.249979  0.388977  0.659235
    C   C6    0.305561  0.249979  0.611023  0.659414
    C   C7    0.194439  0.749979  0.388977  0.659217
    C   C8    0.805561  0.749979  0.611023  0.659405
    Cu  Cu1   0.729517  0.270403  0.500014  1.032172
    Cu  Cu2   0.270483  0.270403  0.499986  1.032252
    Cu  Cu3   0.229517  0.770403  0.500014  1.032195
    Cu  Cu4   0.770483  0.770403  0.499986  1.032257
    Cu  Cu5   0.770382  0.229536  0.499986  1.024843
    Cu  Cu6   0.229618  0.229536  0.500014  1.024809
    Cu  Cu7   0.270382  0.729536  0.499986  1.024834
    Cu  Cu8   0.729618  0.729536  0.500014  1.024798
    O   O17   0.762277  0.298265  0.499149  -0.642435
    O   O18   0.237723  0.298265  0.500851  -0.642472
    O   O19   0.262277  0.798265  0.499149  -0.642447
    O   O20   0.737723  0.798265  0.500851  -0.642479
    O   O21   0.798664  0.262728  0.500828  -0.668693
    O   O22   0.201336  0.262728  0.499172  -0.668667
    O   O23   0.298664  0.762728  0.500828  -0.668688
    O   O24   0.701336  0.762728  0.499172  -0.668664
    O   O25   0.774172  0.268109  0.583153  -0.610282
    O   O26   0.225828  0.268109  0.416847  -0.610313
    O   O27   0.274172  0.768109  0.583153  -0.610293
    O   O28   0.725828  0.768109  0.416847  -0.610313
    O   O29   0.808860  0.231816  0.583126  -0.588507
    O   O30   0.191140  0.231816  0.416874  -0.588482
    O   O31   0.308860  0.731816  0.583126  -0.588505
    O   O32   0.691140  0.731816  0.416874  -0.588478
    C   C9    0.790656  0.290684  0.499986  0.906461
    C   C10   0.209344  0.290684  0.500015  0.906380
    C   C11   0.290656  0.790684  0.499986  0.906487
    C   C12   0.709344  0.790684  0.500015  0.906407
    C   C13   0.805458  0.249961  0.611024  0.673646
    C   C14   0.194542  0.249961  0.388976  0.673554
    C   C15   0.305458  0.749961  0.611024  0.673639
    C   C16   0.694542  0.749961  0.388976  0.673543
    C   C17   0.441406  0.224168  0.882040  0.435089
    C   C18   0.558594  0.224168  0.117960  0.435075
    C   C19   0.941406  0.724168  0.882040  0.435061
    C   C20   0.058594  0.724168  0.117960  0.435107
    N   N1    0.426684  0.249983  0.853321  -0.112751
    N   N2    0.573316  0.249983  0.146679  -0.112615
    N   N3    0.926684  0.749983  0.853321  -0.112662
    N   N4    0.073316  0.749983  0.146679  -0.112649
    C   C21   0.440673  0.275799  0.882040  0.439097
    C   C22   0.559327  0.275799  0.117960  0.439054
    C   C23   0.940673  0.775799  0.882040  0.438989
    C   C24   0.059327  0.775799  0.117960  0.439131
    C   C25   0.470401  0.276127  0.941000  -0.101153
    C   C26   0.529599  0.276127  0.059000  -0.101054
    C   C27   0.970401  0.776127  0.941000  -0.101190
    C   C28   0.029599  0.776127  0.059000  -0.101172
    C   C29   0.485297  0.249984  0.970584  0.112912
    C   C30   0.514703  0.249984  0.029417  0.112864
    C   C31   0.985297  0.749984  0.970584  0.112912
    C   C32   0.014703  0.749984  0.029417  0.112916
    C   C33   0.470619  0.223840  0.941000  -0.096106
    C   C34   0.529381  0.223840  0.059000  -0.096079
    C   C35   0.970619  0.723840  0.941000  -0.096068
    C   C36   0.029381  0.723840  0.059000  -0.096104
    C   C37   0.485219  0.302440  0.970669  -0.094943
    C   C38   0.514781  0.302440  0.029331  -0.095041
    C   C39   0.985219  0.802440  0.970669  -0.094864
    C   C40   0.014781  0.802440  0.029331  -0.094996
    C   C41   0.514540  0.197527  0.029331  -0.091078
    C   C42   0.485460  0.197527  0.970669  -0.091077
    C   C43   0.014540  0.697527  0.029331  -0.091075
    C   C44   0.985460  0.697527  0.970669  -0.091102
    O   O33   0.428343  0.198622  0.853255  -0.511035
    O   O34   0.571657  0.198622  0.146745  -0.511023
    O   O35   0.928343  0.698622  0.853255  -0.511039
    O   O36   0.071657  0.698622  0.146745  -0.511029
    O   O37   0.424960  0.301345  0.853255  -0.509509
    O   O38   0.575040  0.301345  0.146745  -0.509513
    O   O39   0.924960  0.801345  0.853255  -0.509476
    O   O40   0.075040  0.801345  0.146745  -0.509525
    H   H1    0.474166  0.323342  0.948687  0.161811
    H   H2    0.525834  0.323342  0.051313  0.161842
    H   H3    0.974166  0.823342  0.948687  0.161785
    H   H4    0.025834  0.823342  0.051313  0.161826
    H   H5    0.525462  0.176625  0.051313  0.157999
    H   H6    0.474538  0.176625  0.948687  0.157994
    H   H7    0.025462  0.676625  0.051313  0.158000
    H   H8    0.974538  0.676625  0.948687  0.158000
    C   C45   0.640473  0.235204  0.237620  -0.199639
    C   C46   0.359527  0.235204  0.762380  -0.199763
    C   C47   0.140473  0.735204  0.237620  -0.199588
    C   C48   0.859527  0.735204  0.762380  -0.199754
    H   H9    0.646616  0.223846  0.215117  0.164171
    H   H10   0.353384  0.223846  0.784883  0.164236
    H   H11   0.146616  0.723846  0.215117  0.164160
    H   H12   0.853384  0.723846  0.784883  0.164232
    C   C49   0.669765  0.235040  0.296406  -0.056881
    C   C50   0.330235  0.235040  0.703594  -0.056819
    C   C51   0.169765  0.735040  0.296406  -0.056941
    C   C52   0.830235  0.735040  0.703594  -0.056826
    H   H13   0.698120  0.223348  0.318606  0.105137
    H   H14   0.301880  0.223348  0.681394  0.105102
    H   H15   0.198120  0.723348  0.318606  0.105146
    H   H16   0.801880  0.723348  0.681394  0.105105
    C   C53   0.663107  0.249981  0.326300  -0.034785
    C   C54   0.336893  0.249981  0.673700  -0.034916
    C   C55   0.163107  0.749981  0.326300  -0.034673
    C   C56   0.836893  0.749981  0.673700  -0.034910
    C   C57   0.626569  0.264923  0.296421  -0.061584
    C   C58   0.373431  0.264923  0.703579  -0.061601
    C   C59   0.126569  0.764923  0.296421  -0.061758
    C   C60   0.873431  0.764923  0.703579  -0.061586
    H   H17   0.620415  0.276614  0.318634  0.123784
    H   H18   0.379585  0.276614  0.681366  0.123831
    H   H19   0.120415  0.776614  0.318634  0.123860
    H   H20   0.879585  0.776614  0.681366  0.123827
    C   C61   0.597087  0.264761  0.237635  -0.206755
    C   C62   0.402913  0.264761  0.762365  -0.206800
    C   C63   0.097087  0.764761  0.237635  -0.206657
    C   C64   0.902913  0.764761  0.762365  -0.206834
    H   H21   0.568451  0.276120  0.215143  0.158053
    H   H22   0.431549  0.276120  0.784857  0.158026
    H   H23   0.068451  0.776120  0.215143  0.158027
    H   H24   0.931549  0.776120  0.784857  0.158041
    C   C65   0.603827  0.249983  0.207715  0.244201
    C   C66   0.396173  0.249983  0.792285  0.244421
    C   C67   0.103827  0.749983  0.207715  0.244158
    C   C68   0.896173  0.749983  0.792285  0.244412
    C   C69   0.634192  0.155555  0.532444  -0.263553
    C   C70   0.365808  0.155555  0.467556  -0.263550
    C   C71   0.134192  0.655555  0.532444  -0.263523
    C   C72   0.865808  0.655555  0.467556  -0.263432
    C   C73   0.670523  0.117095  0.528170  -0.088241
    C   C74   0.329477  0.117095  0.471831  -0.088284
    C   C75   0.170523  0.617095  0.528170  -0.088263
    C   C76   0.829477  0.617095  0.471831  -0.088316
    C   C77   0.648027  0.094290  0.532017  -0.283600
    C   C78   0.351973  0.094290  0.467983  -0.283577
    C   C79   0.148027  0.594290  0.532017  -0.283581
    C   C80   0.851973  0.594290  0.467983  -0.283547
    H   H25   0.621593  0.127382  0.571977  0.032931
    H   H26   0.378407  0.127382  0.428023  0.032977
    H   H27   0.121593  0.627382  0.571977  0.032933
    H   H28   0.878407  0.627382  0.428023  0.033043
    H   H29   0.662731  0.159100  0.577658  0.085870
    H   H30   0.337269  0.159100  0.422342  0.085852
    H   H31   0.162731  0.659100  0.577658  0.085865
    H   H32   0.837269  0.659100  0.422342  0.085835
    H   H33   0.676309  0.108085  0.502734  -0.000899
    H   H34   0.323691  0.108085  0.497266  -0.000816
    H   H35   0.176309  0.608085  0.502734  -0.000894
    H   H36   0.823691  0.608085  0.497266  -0.000803
    H   H37   0.700241  0.122343  0.571507  0.041365
    H   H38   0.299759  0.122343  0.428493  0.041335
    H   H39   0.200241  0.622343  0.571507  0.041369
    H   H40   0.799759  0.622343  0.428493  0.041346
    H   H41   0.664833  0.090607  0.577256  0.050094
    H   H42   0.335167  0.090607  0.422744  0.050098
    H   H43   0.164833  0.590607  0.577256  0.050094
    H   H44   0.835167  0.590607  0.422744  0.050107
    H   H45   0.646445  0.073236  0.513342  0.089607
    H   H46   0.353555  0.073236  0.486658  0.089632
    H   H47   0.146445  0.573236  0.513342  0.089604
    H   H48   0.853555  0.573236  0.486658  0.089625
    C   C81   0.563224  0.063232  0.500010  -0.148225
    C   C82   0.436775  0.063232  0.499990  -0.148453
    C   C83   0.063224  0.563232  0.500010  -0.148286
    C   C84   0.936775  0.563232  0.499990  -0.148429
    C   C85   0.644819  0.144830  0.500017  0.643412
    C   C86   0.355181  0.144830  0.499983  0.643315
    C   C87   0.144819  0.644830  0.500017  0.643398
    C   C88   0.855181  0.644830  0.499983  0.643254
    C   C89   0.607845  0.132762  0.528610  -0.148821
    C   C90   0.392155  0.132762  0.471390  -0.148929
    C   C91   0.107845  0.632762  0.528610  -0.148834
    C   C92   0.892155  0.632762  0.471390  -0.149180
    C   C93   0.605099  0.105114  0.500013  0.814574
    C   C94   0.394901  0.105114  0.499987  0.814342
    C   C95   0.105099  0.605114  0.500013  0.814550
    C   C96   0.894901  0.605114  0.499987  0.814326
    C   C97   0.583586  0.112446  0.439414  -0.198006
    C   C98   0.416414  0.112446  0.560586  -0.198375
    C   C99   0.083586  0.612446  0.439414  -0.198008
    C   C100  0.916414  0.612446  0.560586  -0.198379
    C   C101  0.605582  0.137683  0.439435  -0.103639
    C   C102  0.394418  0.137683  0.560565  -0.103221
    C   C103  0.105582  0.637683  0.439435  -0.103621
    C   C104  0.894418  0.637683  0.560565  -0.103173
    C   C105  0.582109  0.082123  0.500011  -0.440857
    C   C106  0.417891  0.082123  0.499989  -0.440467
    C   C107  0.082109  0.582123  0.500011  -0.440810
    C   C108  0.917891  0.582123  0.499989  -0.440419
    C   C109  0.667810  0.167819  0.500019  -0.306140
    C   C110  0.332190  0.167819  0.499982  -0.306189
    C   C111  0.167810  0.667819  0.500019  -0.306135
    C   C112  0.832190  0.667819  0.499982  -0.306179
    C   C113  0.686697  0.186706  0.500018  -0.242962
    C   C114  0.313303  0.186706  0.499982  -0.242840
    C   C115  0.186697  0.686706  0.500018  -0.242972
    C   C116  0.813303  0.686706  0.499982  -0.242836
    H   H49   0.585488  0.157377  0.419658  0.006116
    H   H50   0.414512  0.157377  0.580342  0.006037
    H   H51   0.085488  0.657377  0.419658  0.006113
    H   H52   0.914512  0.657377  0.580342  0.006031
    H   H53   0.612803  0.131282  0.414448  0.039362
    H   H54   0.387197  0.131282  0.585552  0.039305
    H   H55   0.112803  0.631282  0.414448  0.039357
    H   H56   0.887197  0.631282  0.585552  0.039300
    H   H57   0.551460  0.118922  0.414722  0.058742
    H   H58   0.448540  0.118922  0.585278  0.058817
    H   H59   0.051460  0.618922  0.414722  0.058741
    H   H60   0.948540  0.618922  0.585278  0.058807
    H   H61   0.617213  0.176666  0.514095  0.069055
    H   H62   0.382787  0.176666  0.485905  0.069061
    H   H63   0.117213  0.676666  0.514095  0.069048
    H   H64   0.882787  0.676666  0.485905  0.069044
    H   H65   0.576711  0.141849  0.503485  0.043048
    H   H66   0.423289  0.141849  0.496515  0.043096
    H   H67   0.076711  0.641849  0.503485  0.043048
    H   H68   0.923289  0.641849  0.496515  0.043184
    H   H69   0.583682  0.092813  0.419300  0.040738
    H   H70   0.416318  0.092813  0.580700  0.040835
    H   H71   0.083682  0.592813  0.419300  0.040740
    H   H72   0.916318  0.592813  0.580700  0.040835
    C   C117  0.084802  0.249601  0.117925  0.471442
    C   C118  0.915198  0.249601  0.882075  0.471168
    C   C119  0.584802  0.749601  0.117925  0.471452
    C   C120  0.415198  0.749601  0.882075  0.471206
    N   N5    0.073365  0.249967  0.146679  -0.143041
    N   N6    0.926635  0.249967  0.853321  -0.142808
    N   N7    0.573365  0.749967  0.146679  -0.143036
    N   N8    0.426635  0.749967  0.853321  -0.142803
    C   C121  0.033199  0.250335  0.117994  0.486915
    C   C122  0.966801  0.250335  0.882006  0.486566
    C   C123  0.533199  0.750335  0.117994  0.486874
    C   C124  0.466801  0.750335  0.882006  0.486582
    C   C125  0.003382  0.250078  0.059035  -0.117516
    C   C126  0.996618  0.250078  0.940965  -0.117230
    C   C127  0.503382  0.750078  0.059035  -0.117474
    C   C128  0.496618  0.750078  0.940965  -0.117268
    C   C129  0.014713  0.249969  0.029417  0.119077
    C   C130  0.985287  0.249969  0.970584  0.118671
    C   C131  0.514713  0.749969  0.029417  0.119039
    C   C132  0.485287  0.749969  0.970584  0.118720
    C   C133  0.055639  0.249859  0.058965  -0.116411
    C   C134  0.944361  0.249859  0.941035  -0.116075
    C   C135  0.555639  0.749859  0.058965  -0.116368
    C   C136  0.444361  0.749859  0.941035  -0.116125
    C   C137  0.962243  0.250089  0.029401  -0.056816
    C   C138  0.037757  0.250089  0.970599  -0.056920
    C   C139  0.462243  0.750089  0.029401  -0.056850
    C   C140  0.537757  0.750089  0.970599  -0.056875
    C   C141  0.932902  0.249848  0.970740  -0.115951
    C   C142  0.067098  0.249848  0.029260  -0.115882
    C   C143  0.432902  0.749848  0.970740  -0.115920
    C   C144  0.567098  0.749848  0.029260  -0.115963
    O   O41   0.124731  0.248276  0.146676  -0.531489
    O   O42   0.875269  0.248276  0.853324  -0.531440
    O   O43   0.624731  0.748276  0.146676  -0.531503
    O   O44   0.375269  0.748276  0.853324  -0.531450
    O   O45   0.022065  0.251660  0.146814  -0.546296
    O   O46   0.977935  0.251660  0.853186  -0.546233
    O   O47   0.522065  0.751660  0.146814  -0.546288
    O   O48   0.477935  0.751660  0.853186  -0.546242
    H   H73   0.952348  0.250155  0.051411  0.151519
    H   H74   0.047652  0.250155  0.948589  0.151541
    H   H75   0.452348  0.750155  0.051411  0.151531
    H   H76   0.547652  0.750155  0.948589  0.151535
    H   H77   0.901017  0.249783  0.948786  0.163703
    H   H78   0.098983  0.249783  0.051214  0.163716
    H   H79   0.401017  0.749783  0.948786  0.163696
    H   H80   0.598983  0.749783  0.051214  0.163750
    C   C145  0.895919  0.228269  0.762357  -0.181508
    C   C146  0.104081  0.228269  0.237643  -0.181165
    C   C147  0.395919  0.728269  0.762357  -0.181325
    C   C148  0.604081  0.728269  0.237643  -0.181161
    H   H81   0.918526  0.210880  0.784844  0.159664
    H   H82   0.081474  0.210880  0.215156  0.159564
    H   H83   0.418526  0.710880  0.784844  0.159619
    H   H84   0.581474  0.710880  0.215156  0.159564
    C   C149  0.866681  0.228362  0.703571  -0.089430
    C   C150  0.133319  0.228362  0.296429  -0.089816
    C   C151  0.366681  0.728362  0.703571  -0.089552
    C   C152  0.633319  0.728362  0.296429  -0.089823
    H   H85   0.867264  0.211107  0.681354  0.121877
    H   H86   0.132736  0.211107  0.318647  0.121990
    H   H87   0.367264  0.711107  0.681354  0.121895
    H   H88   0.632736  0.711107  0.318647  0.121992
    C   C153  0.836799  0.249961  0.673700  -0.033001
    C   C154  0.163201  0.249961  0.326300  -0.032745
    C   C155  0.336799  0.749961  0.673700  -0.032932
    C   C156  0.663201  0.749961  0.326300  -0.032737
    C   C157  0.836809  0.271561  0.703601  -0.079563
    C   C158  0.163191  0.271561  0.296399  -0.079709
    C   C159  0.336809  0.771561  0.703601  -0.079623
    C   C160  0.663191  0.771561  0.296399  -0.079711
    H   H89   0.814015  0.288815  0.681406  0.130953
    H   H90   0.185985  0.288815  0.318594  0.130997
    H   H91   0.314015  0.788815  0.681406  0.130965
    H   H92   0.685985  0.788815  0.318594  0.130999
    C   C161  0.866372  0.271657  0.762387  -0.204237
    C   C162  0.133628  0.271657  0.237613  -0.204145
    C   C163  0.366372  0.771657  0.762387  -0.204174
    C   C164  0.633628  0.771657  0.237613  -0.204154
    H   H93   0.866270  0.289048  0.784896  0.164727
    H   H94   0.133730  0.289048  0.215104  0.164717
    H   H95   0.366270  0.789048  0.784896  0.164721
    H   H96   0.633730  0.789048  0.215104  0.164719
    C   C165  0.896107  0.249964  0.792285  0.266512
    C   C166  0.103893  0.249964  0.207715  0.266367
    C   C167  0.396107  0.749964  0.792285  0.266392
    C   C168  0.603893  0.749964  0.207715  0.266379
    C   C169  0.828147  0.381950  0.467589  -0.107820
    C   C170  0.171853  0.381950  0.532411  -0.108049
    C   C171  0.328147  0.881950  0.467589  -0.107862
    C   C172  0.671853  0.881950  0.532411  -0.108030
    C   C173  0.868724  0.343491  0.471805  -0.212038
    C   C174  0.131276  0.343491  0.528195  -0.212277
    C   C175  0.368724  0.843491  0.471805  -0.212263
    C   C176  0.631276  0.843491  0.528195  -0.212339
    C   C177  0.889605  0.367912  0.467960  -0.168434
    C   C178  0.110395  0.367912  0.532040  -0.168425
    C   C179  0.389605  0.867912  0.467960  -0.168446
    C   C180  0.610395  0.867912  0.532040  -0.168360
    H   H97   0.836554  0.414317  0.428061  0.047049
    H   H98   0.163446  0.414317  0.571939  0.047023
    H   H99   0.336554  0.914317  0.428061  0.047048
    H   H100  0.663446  0.914317  0.571939  0.047028
    H   H101  0.801994  0.376019  0.422374  0.044265
    H   H102  0.198006  0.376019  0.577627  0.044325
    H   H103  0.301994  0.876019  0.422374  0.044267
    H   H104  0.698006  0.876019  0.577627  0.044328
    H   H105  0.890445  0.324990  0.497219  0.041420
    H   H106  0.109555  0.324990  0.502781  0.041452
    H   H107  0.390445  0.824990  0.497219  0.041453
    H   H108  0.609555  0.824990  0.502781  0.041460
    H   H109  0.841807  0.335443  0.428465  0.074348
    H   H110  0.158193  0.335443  0.571535  0.074420
    H   H111  0.341807  0.835443  0.428465  0.074411
    H   H112  0.658193  0.835443  0.571535  0.074444
    H   H113  0.870669  0.373726  0.422723  0.028924
    H   H114  0.129331  0.373726  0.577277  0.028927
    H   H115  0.370669  0.873726  0.422723  0.028945
    H   H116  0.629331  0.873726  0.577277  0.028915
    H   H117  0.919991  0.360160  0.486614  0.056034
    H   H118  0.080009  0.360160  0.513386  0.056033
    H   H119  0.419991  0.860160  0.486614  0.056059
    H   H120  0.580009  0.860160  0.513386  0.056030
    C   C181  0.936676  0.436705  0.499997  -0.151366
    C   C182  0.063324  0.436705  0.500003  -0.151132
    C   C183  0.436676  0.936705  0.499997  -0.151296
    C   C184  0.563324  0.936705  0.500003  -0.151176
    C   C185  0.855077  0.355113  0.499988  0.584549
    C   C186  0.144923  0.355113  0.500012  0.584788
    C   C187  0.355077  0.855113  0.499988  0.584714
    C   C188  0.644923  0.855113  0.500012  0.584671
    C   C189  0.852857  0.406381  0.471425  -0.233912
    C   C190  0.147143  0.406381  0.528575  -0.233807
    C   C191  0.352857  0.906381  0.471425  -0.233888
    C   C192  0.647143  0.906381  0.528575  -0.233812
    C   C193  0.894794  0.394832  0.499993  0.811464
    C   C194  0.105206  0.394832  0.500007  0.811717
    C   C195  0.394794  0.894832  0.499993  0.811467
    C   C196  0.605206  0.894832  0.500007  0.811648
    C   C197  0.917762  0.386045  0.560591  -0.190388
    C   C198  0.082238  0.386045  0.439409  -0.190271
    C   C199  0.417762  0.886045  0.560591  -0.190329
    C   C200  0.582238  0.886045  0.439409  -0.190365
    C   C201  0.892516  0.364057  0.560572  -0.097923
    C   C202  0.107484  0.364057  0.439428  -0.098209
    C   C203  0.392516  0.864057  0.560572  -0.097962
    C   C204  0.607484  0.864057  0.439428  -0.097908
    C   C205  0.917785  0.417822  0.499996  -0.440837
    C   C206  0.082215  0.417822  0.500004  -0.441124
    C   C207  0.417785  0.917822  0.499996  -0.440902
    C   C208  0.582215  0.917822  0.500004  -0.441071
    C   C209  0.832087  0.332122  0.499985  -0.272128
    C   C210  0.167913  0.332122  0.500015  -0.272202
    C   C211  0.332087  0.832122  0.499985  -0.272134
    C   C212  0.667913  0.832122  0.500015  -0.272133
    C   C213  0.813201  0.313233  0.499984  -0.255794
    C   C214  0.186799  0.313233  0.500016  -0.255673
    C   C215  0.313201  0.813233  0.499984  -0.255820
    C   C216  0.686799  0.813233  0.500016  -0.255728
    H   H121  0.882718  0.374259  0.580371  0.021046
    H   H122  0.117282  0.374259  0.419629  0.021103
    H   H123  0.382718  0.874259  0.580371  0.021035
    H   H124  0.617282  0.874259  0.419629  0.021019
    H   H125  0.911403  0.344345  0.585538  0.030875
    H   H126  0.088597  0.344345  0.414462  0.030945
    H   H127  0.411403  0.844345  0.585538  0.030883
    H   H128  0.588597  0.844345  0.414462  0.030878
    H   H129  0.923638  0.405821  0.585303  0.047988
    H   H130  0.076362  0.405821  0.414697  0.047945
    H   H131  0.423638  0.905821  0.585303  0.047975
    H   H132  0.576362  0.905821  0.414697  0.047973
    H   H133  0.816218  0.389750  0.485960  0.018506
    H   H134  0.183782  0.389750  0.514040  0.018536
    H   H135  0.316218  0.889750  0.485960  0.018505
    H   H136  0.683782  0.889750  0.514040  0.018534
    H   H137  0.856340  0.424948  0.496572  0.064191
    H   H138  0.143660  0.424948  0.503428  0.064168
    H   H139  0.356340  0.924948  0.496572  0.064187
    H   H140  0.643660  0.924948  0.503428  0.064166
    H   H141  0.947445  0.375894  0.580683  0.044866
    H   H142  0.052555  0.375894  0.419317  0.044847
    H   H143  0.447445  0.875894  0.580683  0.044855
    H   H144  0.552555  0.875894  0.419317  0.044846
    O   O49   0.493722  0.030470  0.548483  -0.675291
    O   O50   0.506278  0.030470  0.451517  -0.675263
    O   O51   0.993722  0.530470  0.548483  -0.675218
    O   O52   0.006278  0.530470  0.451517  -0.675250
    O   O53   0.445272  0.030492  0.451501  -0.644391
    O   O54   0.554728  0.030492  0.548499  -0.644359
    O   O55   0.945272  0.530492  0.451501  -0.644431
    O   O56   0.054728  0.530492  0.548499  -0.644374
    C   C217  0.459317  0.040676  0.499991  0.845790
    C   C218  0.540683  0.040676  0.500009  0.845698
    C   C219  0.959317  0.540676  0.499991  0.845708
    C   C220  0.040683  0.540676  0.500009  0.845756
    Cu  Cu9   0.027892  0.499933  0.555775  1.129763
    Cu  Cu10  0.972108  0.499933  0.444225  1.129821
    Cu  Cu11  0.527892  0.999933  0.555775  1.129816
    Cu  Cu12  0.472108  0.999933  0.444225  1.129796
    O   O57   0.054795  0.469411  0.548494  -0.645241
    O   O58   0.945205  0.469411  0.451506  -0.645265
    O   O59   0.554795  0.969411  0.548494  -0.645261
    O   O60   0.445205  0.969411  0.451506  -0.645265
    O   O61   0.006345  0.469435  0.451512  -0.678250
    O   O62   0.993655  0.469435  0.548488  -0.678275
    O   O63   0.506345  0.969435  0.451512  -0.678240
    O   O64   0.493655  0.969435  0.548488  -0.678274
    C   C221  0.040766  0.459244  0.500003  0.851299
    C   C222  0.959234  0.459244  0.499997  0.851505
    C   C223  0.540766  0.959244  0.500003  0.851339
    C   C224  0.459234  0.959244  0.499997  0.851449
